T42/data/state_estimation/PT_Dx_01_2030_Su_Bd/PT_Dx_01_2030_Su_Bd_t23.csv
bus,vm_pu,va_degree,p_mw,q_mvar
1,0.980773,-0.065813,-9.409372,-3.718775
2,1.000077,-0.000251,19.287317,5.865171
3,0.980485,-0.065388,0.000078,0.000017
4,0.980174,-0.065725,0.000072,0.000031
5,0.979183,-0.065440,-0.000065,-0.000060
6,0.979818,-0.066111,-0.018140,-0.009220
7,0.979177,-0.064991,-0.037185,-0.018946
8,0.979452,-0.065629,-0.013372,-0.006797
9,0.978879,-0.066304,-0.552387,-0.282966
10,0.979205,-0.065585,-2.408440,-1.233778
11,0.978133,-0.066383,-0.347791,-0.178213
12,0.976913,-0.067539,-0.002062,-0.000980
13,0.978461,-0.066479,-0.025244,-0.009921
14,0.980571,-0.065730,-0.949695,-0.456847
15,0.978184,-0.066750,-0.013451,-0.006916
16,0.979949,-0.065436,-0.014893,-0.007562
17,0.979613,-0.065459,-0.004160,-0.002175
18,0.979359,-0.065964,-0.009871,-0.005065
19,0.977491,-0.067562,-0.041922,-0.021488
20,0.980152,-0.065600,-0.145786,-0.045015
21,0.977225,-0.067510,-0.000891,-0.000342
22,0.978209,-0.066822,-0.006084,-0.002284
23,0.977416,-0.066730,-0.047153,-0.024117
24,0.977703,-0.067072,-0.053736,-0.021222
25,0.977049,-0.067882,-0.008611,-0.003354
26,0.979063,-0.066157,-0.028004,-0.014366
27,0.977838,-0.064897,-0.004730,-0.002321
28,0.977139,-0.067359,-0.025657,-0.013199
29,0.979938,-0.064938,-0.026878,-0.013704
30,0.979852,-0.066595,-0.125567,-0.064416
31,0.979789,-0.066224,-0.022927,-0.011709
32,0.980822,-0.066073,-0.084166,-0.043166
33,0.979002,-0.066759,-0.414350,-0.182529
34,0.978785,-0.067004,-0.000622,-0.000414
35,0.977625,-0.067163,-0.007415,-0.003789
36,0.979166,-0.066425,-0.008307,-0.004205
37,0.979414,-0.065275,-0.007784,-0.003069
38,0.976952,-0.067677,-0.052622,-0.026847
39,0.979508,-0.066265,-0.151679,-0.077673
40,0.977016,-0.067363,-0.011786,-0.004581
41,0.977810,-0.067099,-0.011817,-0.004666
42,0.978309,-0.066631,-0.003108,-0.001633
43,0.978331,-0.067169,-0.057572,-0.029399
44,0.977542,-0.067974,-0.034671,-0.017758
45,0.977463,-0.067170,-0.002160,-0.000781
46,0.978898,-0.066599,-0.064690,-0.033064
47,0.977646,-0.067366,-0.158024,-0.081063
48,0.978817,-0.065764,-0.000573,-0.000296
49,0.978946,-0.065752,-0.025379,-0.013074
50,0.980205,-0.065389,-0.004612,-0.002329
51,0.979060,-0.065487,-0.012379,-0.004837
52,0.979053,-0.066043,-0.022463,-0.011518
53,0.977338,-0.066720,-0.167107,-0.085684
54,0.978908,-0.066231,-0.008196,-0.003281
55,0.979368,-0.066582,-0.030187,-0.015447
56,0.978777,-0.065293,-0.007427,-0.003792
57,0.979119,-0.065136,-0.003999,-0.002007
58,0.977912,-0.068333,-0.008548,-0.004335
59,0.977086,-0.067319,-0.025059,-0.009971
60,0.976780,-0.067539,-0.009976,-0.003999
61,0.979457,-0.065858,-0.582040,-0.268454
62,0.980803,-0.067372,-0.001472,-0.000794
63,0.977430,-0.067010,-0.001454,-0.000768
64,0.979387,-0.065850,-0.215248,-0.110230
65,0.979484,-0.065160,-0.518799,-0.236020
66,0.979530,-0.065059,-0.298038,-0.152739
67,0.979733,-0.065243,-0.032093,-0.016382
68,0.977974,-0.066687,-0.088984,-0.045543
69,0.979773,-0.066238,-0.014862,-0.005850
70,0.978250,-0.066648,-0.027631,-0.014172
71,0.977557,-0.066968,-0.005592,-0.002877
72,0.977485,-0.067007,-0.020896,-0.010799
73,0.977677,-0.067920,-0.010526,-0.004208
74,0.977181,-0.067862,-0.007077,-0.003589
75,0.978249,-0.067352,-0.074930,-0.038397
76,0.979456,-0.065965,-0.005644,-0.002894
77,0.979730,-0.065546,-0.011440,-0.005874
78,0.980144,-0.066603,-0.034165,-0.017480
79,0.979728,-0.065255,-0.104847,-0.053731
80,0.978444,-0.067201,-0.000013,0.000022
81,0.977528,-0.066540,-0.001355,-0.000671
82,0.979687,-0.065887,-0.012593,-0.006481
83,0.979115,-0.065683,-0.008060,-0.004111
84,0.979093,-0.065550,-0.005764,-0.002983
85,0.978149,-0.067252,-0.017901,-0.009141
86,0.980066,-0.065623,-0.017254,-0.006822
87,0.979297,-0.066328,-0.009304,-0.004753
88,0.979501,-0.065174,-0.024580,-0.012502
89,0.978701,-0.065786,-0.203626,-0.104258
90,0.978446,-0.065392,-0.054723,-0.027958
91,0.978049,-0.067724,-0.045626,-0.023505
92,0.977104,-0.067885,-0.001178,-0.000619
93,0.979289,-0.064871,-0.053022,-0.027171
94,0.977740,-0.067317,-0.012465,-0.006377
95,0.979398,-0.065662,-0.127227,-0.065234
96,0.977182,-0.067792,-0.019405,-0.007786
97,0.977021,-0.067826,-0.011163,-0.005767
98,0.977914,-0.066672,-0.047851,-0.018952
99,0.978817,-0.065950,-0.303784,-0.125891
100,0.980208,-0.065644,-0.007036,-0.003636
101,0.978866,-0.066012,-0.060199,-0.023815
102,0.979216,-0.067008,-0.225339,-0.085749
103,0.979120,-0.065786,-0.030444,-0.012002
104,0.978259,-0.066847,-0.119572,-0.047163
105,0.978869,-0.065326,-0.001439,-0.000872
106,0.979345,-0.065497,-0.000100,-0.000009
107,0.979098,-0.065302,0.000036,0.000012
108,0.978734,-0.066250,0.000122,0.000069
109,0.979564,-0.065138,-0.000059,-0.000012
110,0.977054,-0.067980,-0.000039,0.000036
111,0.977375,-0.067270,-0.000088,0.000076
112,0.980205,-0.065879,0.000011,0.000045
113,0.979692,-0.066179,-0.000021,0.000050
114,0.978317,-0.068012,-0.000008,-0.000009
115,0.978335,-0.067529,0.000055,-0.000011
116,0.978890,-0.066609,0.000052,-0.000066
117,0.977346,-0.067394,0.000021,-0.000009
118,0.979865,-0.065601,0.000110,0.000000
119,0.979182,-0.065835,-0.000059,-0.000048
120,0.978439,-0.066244,0.000064,-0.000057
121,0.981121,-0.065655,0.000014,-0.000012
122,0.978714,-0.065832,0.000042,0.000023
123,0.979044,-0.065834,0.000009,0.000023
124,0.979597,-0.066334,-0.000010,0.000036
125,0.979258,-0.065684,0.000017,-0.000013
126,0.976936,-0.067771,-0.000010,-0.000014
127,0.978976,-0.065710,-0.000058,0.000017
128,0.978865,-0.066529,-0.000020,0.000013
129,0.977645,-0.067533,-0.000046,0.000031
130,0.977298,-0.067433,0.000031,-0.000053
131,0.980233,-0.065818,-0.000042,0.000105
132,0.977158,-0.067345,-0.000088,0.000036
133,0.979086,-0.064942,0.000029,0.000098
134,0.980636,-0.065681,0.000005,-0.000015
135,0.976948,-0.067566,0.000090,0.000039
136,0.978020,-0.067376,0.000055,-0.000004
137,0.977523,-0.068003,-0.000013,0.000077
138,0.977946,-0.066846,0.000028,-0.000009
139,0.978340,-0.066392,-0.000075,-0.000116
140,0.978695,-0.066295,-0.000047,0.000069
141,0.977973,-0.067755,0.000026,0.000049
142,0.977892,-0.068323,0.000037,0.000064
143,0.977701,-0.067367,0.000070,-0.000014
144,0.978759,-0.066371,0.000050,0.000013
145,0.979291,-0.066866,-0.000021,-0.000038
146,0.979023,-0.066317,0.000025,-0.000016
147,0.978178,-0.066701,0.000010,0.000042
148,0.979165,-0.066273,0.000041,0.000021
149,0.976978,-0.068341,0.000070,-0.000114
150,0.977808,-0.067378,0.000045,0.000008
151,0.980324,-0.066762,-0.000039,-0.000046
152,0.979182,-0.066218,0.000041,0.000041
153,0.978562,-0.065254,0.000034,0.000002
154,0.979664,-0.066661,0.000020,-0.000015
155,0.977317,-0.067267,0.000009,0.000077
156,0.978318,-0.066199,-0.000013,-0.000081
157,0.979435,-0.065981,0.000020,0.000029
158,0.979546,-0.065823,-0.000007,-0.000010
159,0.977274,-0.067080,-0.000026,-0.000004
160,0.979948,-0.066018,0.000045,0.000075
161,0.979233,-0.066279,-0.000031,0.000029
162,0.977443,-0.067452,0.000010,-0.000027
163,0.980114,-0.064722,-0.000052,-0.000004
164,0.978400,-0.065668,-0.000118,-0.000054
165,0.979904,-0.065183,-0.000048,0.000007
166,0.980404,-0.066942,-0.000017,0.000034
167,0.977847,-0.066942,0.000029,0.000010
168,0.978651,-0.066314,0.000009,-0.000070
169,0.979896,-0.066283,0.000007,-0.000155
170,0.980104,-0.066768,0.000105,0.000019
171,0.978008,-0.067387,-0.000028,0.000081
172,0.977878,-0.067307,-0.000050,-0.000048
173,0.979340,-0.065951,-0.000073,0.000017
174,0.977415,-0.066855,-0.000066,-0.000020
175,0.978014,-0.067622,0.000020,0.000045
176,0.978559,-0.066051,-0.000045,0.000018
177,0.977261,-0.066940,0.000079,-0.000100
178,0.977796,-0.067348,0.000020,-0.000007
179,0.980078,-0.065954,-0.000012,0.000020
180,0.980325,-0.065126,0.000075,-0.000003
181,0.977390,-0.068240,0.000054,0.000012
182,0.977247,-0.067592,-0.000008,-0.000059
183,0.978934,-0.066457,0.000071,-0.000025
184,0.979641,-0.066058,0.000005,0.000039
185,0.980105,-0.066400,0.000056,-0.000000
186,0.978710,-0.066861,0.000020,-0.000031
187,0.978438,-0.066373,0.000015,-0.000020
188,0.978049,-0.067534,-0.000013,-0.000035
189,0.980376,-0.066081,0.000032,-0.000060
190,0.978412,-0.067199,-0.000027,-0.000080
191,0.980697,-0.066134,0.000077,-0.000034
